479
Lattice="81.34465109182693 0.0 0.0 0.0 84.53584116900443 0.0 0.0 0.0 2.8759677200142253" Properties=species:S:1:pos:R:3 pbc="T T T"
Nb      13.55744185      29.74409226       0.95865591
Nb      13.55744185      34.44052788       0.95865591
Nb      12.20169766      36.78874569       1.91731181
Nb      10.84595348      39.13696350      -0.00000000
Nb      13.55744185      39.13696350       0.95865591
Nb      12.20169766      41.48518131       1.91731181
Nb      10.84595348      43.83339912      -0.00000000
Nb      13.55744185      43.83339912       0.95865591
Nb      12.20169766      46.18161693       1.91731181
Nb      13.55744185      48.52983475       0.95865591
Nb      12.20169766      50.87805256       1.91731181
Nb      13.55744185      53.22627037       0.95865591
Nb      21.69190696      20.35122102       0.95865591
Nb      20.33616277      22.69943883       1.91731181
Nb      18.98041859      25.04765664      -0.00000000
Nb      21.69190696      25.04765664       0.95865591
Nb      16.26893022      25.04765664       1.91731181
Nb      14.91318603      27.39587445       0.00000000
Nb      17.62467440      27.39587445       0.95865591
Nb      20.33616277      27.39587445       1.91731181
Nb      18.98041859      29.74409226      -0.00000000
Nb      21.69190696      29.74409226       0.95865591
Nb      16.26893022      29.74409226       1.91731181
Nb      14.91318603      32.09231007       0.00000000
Nb      17.62467440      32.09231007       0.95865591
Nb      20.33616277      32.09231007       1.91731181
Nb      18.98041859      34.44052788      -0.00000000
Nb      21.69190696      34.44052788       0.95865591
Nb      16.26893022      34.44052788       1.91731181
Nb      14.91318603      36.78874569       0.00000000
Nb      17.62467440      36.78874569       0.95865591
Nb      20.33616277      36.78874569       1.91731181
Nb      18.98041859      39.13696350      -0.00000000
Nb      21.69190696      39.13696350       0.95865591
Nb      16.26893022      39.13696350       1.91731181
Nb      14.91318603      41.48518131       0.00000000
Nb      17.62467440      41.48518131       0.95865591
Nb      20.33616277      41.48518131       1.91731181
Nb      18.98041859      43.83339912      -0.00000000
Nb      21.69190696      43.83339912       0.95865591
Nb      16.26893022      43.83339912       1.91731181
Nb      14.91318603      46.18161693       0.00000000
Nb      17.62467440      46.18161693       0.95865591
Nb      20.33616277      46.18161693       1.91731181
Nb      18.98041859      48.52983475      -0.00000000
Nb      21.69190696      48.52983475       0.95865591
Nb      16.26893022      48.52983475       1.91731181
Nb      14.91318603      50.87805256       0.00000000
Nb      17.62467440      50.87805256       0.95865591
Nb      20.33616277      50.87805256       1.91731181
Nb      18.98041859      53.22627037      -0.00000000
Nb      21.69190696      53.22627037       0.95865591
Nb      16.26893022      53.22627037       1.91731181
Nb      14.91318603      55.57448818       0.00000000
Nb      17.62467440      55.57448818       0.95865591
Nb      20.33616277      55.57448818       1.91731181
Nb      18.98041859      57.92270599      -0.00000000
Nb      21.69190696      57.92270599       0.95865591
Nb      16.26893022      57.92270599       1.91731181
Nb      17.62467440      60.27092380       0.95865591
Nb      20.33616277      60.27092380       1.91731181
Nb      18.98041859      62.61914161      -0.00000000
Nb      21.69190696      62.61914161       0.95865591
Nb      27.11488370      15.65478540      -0.00000000
Nb      29.82637207      15.65478540       0.95865591
Nb      23.04765114      18.00300321       0.00000000
Nb      25.75913951      18.00300321       0.95865591
Nb      28.47062788      18.00300321       1.91731181
Nb      27.11488370      20.35122102      -0.00000000
Nb      29.82637207      20.35122102       0.95865591
Nb      24.40339533      20.35122102       1.91731181
Nb      23.04765114      22.69943883       0.00000000
Nb      25.75913951      22.69943883       0.95865591
Nb      28.47062788      22.69943883       1.91731181
Nb      27.11488370      25.04765664      -0.00000000
Nb      29.82637207      25.04765664       0.95865591
Nb      24.40339533      25.04765664       1.91731181
Nb      23.04765114      27.39587445       0.00000000
Nb      25.75913951      27.39587445       0.95865591
Nb      28.47062788      27.39587445       1.91731181
Nb      27.11488370      29.74409226      -0.00000000
Nb      29.82637207      29.74409226       0.95865591
Nb      24.40339533      29.74409226       1.91731181
Nb      23.04765114      32.09231007       0.00000000
Nb      25.75913951      32.09231007       0.95865591
Nb      28.47062788      32.09231007       1.91731181
Nb      27.11488370      34.44052788      -0.00000000
Nb      29.82637207      34.44052788       0.95865591
Nb      24.40339533      34.44052788       1.91731181
Nb      23.04765114      36.78874569       0.00000000
Nb      25.75913951      36.78874569       0.95865591
Nb      28.47062788      36.78874569       1.91731181
Nb      27.11488370      39.13696350      -0.00000000
Nb      29.82637207      39.13696350       0.95865591
Nb      24.40339533      39.13696350       1.91731181
Nb      23.04765114      41.48518131       0.00000000
Nb      25.75913951      41.48518131       0.95865591
Nb      28.47062788      41.48518131       1.91731181
Nb      27.11488370      43.83339912      -0.00000000
Nb      29.82637207      43.83339912       0.95865591
Nb      24.40339533      43.83339912       1.91731181
Nb      23.04765114      46.18161693       0.00000000
Nb      25.75913951      46.18161693       0.95865591
Nb      28.47062788      46.18161693       1.91731181
Nb      27.11488370      48.52983475      -0.00000000
Nb      29.82637207      48.52983475       0.95865591
Nb      24.40339533      48.52983475       1.91731181
Nb      23.04765114      50.87805256       0.00000000
Nb      25.75913951      50.87805256       0.95865591
Nb      28.47062788      50.87805256       1.91731181
Nb      27.11488370      53.22627037      -0.00000000
Nb      29.82637207      53.22627037       0.95865591
Nb      24.40339533      53.22627037       1.91731181
Nb      23.04765114      55.57448818       0.00000000
Nb      25.75913951      55.57448818       0.95865591
Nb      28.47062788      55.57448818       1.91731181
Nb      27.11488370      57.92270599      -0.00000000
Nb      29.82637207      57.92270599       0.95865591
Nb      24.40339533      57.92270599       1.91731181
Nb      23.04765114      60.27092380       0.00000000
Nb      25.75913951      60.27092380       0.95865591
Nb      28.47062788      60.27092380       1.91731181
Nb      27.11488370      62.61914161      -0.00000000
Nb      29.82637207      62.61914161       0.95865591
Nb      24.40339533      62.61914161       1.91731181
Nb      23.04765114      64.96735942       0.00000000
Nb      25.75913951      64.96735942       0.95865591
Nb      28.47062788      64.96735942       1.91731181
Nb      27.11488370      67.31557723      -0.00000000
Nb      29.82637207      67.31557723       0.95865591
Nb      24.40339533      67.31557723       1.91731181
Nb      28.47062788      69.66379504       1.91731181
Nb      33.89360462      13.30656759       0.95865591
Nb      36.60509299      13.30656759       1.91731181
Nb      35.24934881      15.65478540      -0.00000000
Nb      37.96083718      15.65478540       0.95865591
Nb      32.53786044      15.65478540       1.91731181
Nb      31.18211625      18.00300321       0.00000000
Nb      33.89360462      18.00300321       0.95865591
Nb      36.60509299      18.00300321       1.91731181
Nb      35.24934881      20.35122102      -0.00000000
Nb      37.96083718      20.35122102       0.95865591
Nb      32.53786044      20.35122102       1.91731181
Nb      31.18211625      22.69943883       0.00000000
Nb      33.89360462      22.69943883       0.95865591
Nb      36.60509299      22.69943883       1.91731181
Nb      35.24934881      25.04765664      -0.00000000
Nb      37.96083718      25.04765664       0.95865591
Nb      32.53786044      25.04765664       1.91731181
Nb      31.18211625      27.39587445       0.00000000
Nb      33.89360462      27.39587445       0.95865591
Nb      36.60509299      27.39587445       1.91731181
Nb      35.24934881      29.74409226      -0.00000000
Nb      37.96083718      29.74409226       0.95865591
Nb      32.53786044      29.74409226       1.91731181
Nb      31.18211625      32.09231007       0.00000000
Nb      33.89360462      32.09231007       0.95865591
Nb      36.60509299      32.09231007       1.91731181
Nb      35.24934881      34.44052788      -0.00000000
Nb      37.96083718      34.44052788       0.95865591
Nb      32.53786044      34.44052788       1.91731181
Nb      31.18211625      36.78874569       0.00000000
Nb      33.89360462      36.78874569       0.95865591
Nb      36.60509299      36.78874569       1.91731181
Nb      35.24934881      39.13696350      -0.00000000
Nb      37.96083718      39.13696350       0.95865591
Nb      32.53786044      39.13696350       1.91731181
Nb      31.18211625      41.48518131       0.00000000
Nb      33.89360462      41.48518131       0.95865591
Nb      36.60509299      41.48518131       1.91731181
Nb      35.24934881      43.83339912      -0.00000000
Nb      37.96083718      43.83339912       0.95865591
Nb      32.53786044      43.83339912       1.91731181
Nb      31.18211625      46.18161693       0.00000000
Nb      33.89360462      46.18161693       0.95865591
Nb      36.60509299      46.18161693       1.91731181
Nb      35.24934881      48.52983475      -0.00000000
Nb      37.96083718      48.52983475       0.95865591
Nb      32.53786044      48.52983475       1.91731181
Nb      31.18211625      50.87805256       0.00000000
Nb      33.89360462      50.87805256       0.95865591
Nb      36.60509299      50.87805256       1.91731181
Nb      35.24934881      53.22627037      -0.00000000
Nb      37.96083718      53.22627037       0.95865591
Nb      32.53786044      53.22627037       1.91731181
Nb      31.18211625      55.57448818       0.00000000
Nb      33.89360462      55.57448818       0.95865591
Nb      36.60509299      55.57448818       1.91731181
Nb      35.24934881      57.92270599      -0.00000000
Nb      37.96083718      57.92270599       0.95865591
Nb      32.53786044      57.92270599       1.91731181
Nb      31.18211625      60.27092380       0.00000000
Nb      33.89360462      60.27092380       0.95865591
Nb      36.60509299      60.27092380       1.91731181
Nb      35.24934881      62.61914161      -0.00000000
Nb      37.96083718      62.61914161       0.95865591
Nb      32.53786044      62.61914161       1.91731181
Nb      31.18211625      64.96735942       0.00000000
Nb      33.89360462      64.96735942       0.95865591
Nb      36.60509299      64.96735942       1.91731181
Nb      35.24934881      67.31557723      -0.00000000
Nb      37.96083718      67.31557723       0.95865591
Nb      32.53786044      67.31557723       1.91731181
Nb      31.18211625      69.66379504       0.00000000
Nb      33.89360462      69.66379504       0.95865591
Nb      36.60509299      69.66379504       1.91731181
Nb      37.96083718      72.01201285       0.95865591
Nb      39.31658136      13.30656759       0.00000000
Nb      42.02806973      13.30656759       0.95865591
Nb      44.73955810      13.30656759       1.91731181
Nb      43.38381392      15.65478540      -0.00000000
Nb      46.09530229      15.65478540       0.95865591
Nb      40.67232555      15.65478540       1.91731181
Nb      39.31658136      18.00300321       0.00000000
Nb      42.02806973      18.00300321       0.95865591
Nb      44.73955810      18.00300321       1.91731181
Nb      43.38381392      20.35122102      -0.00000000
Nb      46.09530229      20.35122102       0.95865591
Nb      40.67232555      20.35122102       1.91731181
Nb      39.31658136      22.69943883       0.00000000
Nb      42.02806973      22.69943883       0.95865591
Nb      44.73955810      22.69943883       1.91731181
Nb      43.38381392      25.04765664      -0.00000000
Nb      46.09530229      25.04765664       0.95865591
Nb      40.67232555      25.04765664       1.91731181
Nb      39.31658136      27.39587445       0.00000000
Nb      42.02806973      27.39587445       0.95865591
Nb      44.73955810      27.39587445       1.91731181
Nb      43.38381392      29.74409226      -0.00000000
Nb      46.09530229      29.74409226       0.95865591
Nb      40.67232555      29.74409226       1.91731181
Nb      39.31658136      32.09231007       0.00000000
Nb      42.02806973      32.09231007       0.95865591
Nb      44.73955810      32.09231007       1.91731181
Nb      43.38381392      34.44052788      -0.00000000
Nb      46.09530229      34.44052788       0.95865591
Nb      40.67232555      34.44052788       1.91731181
Nb      39.31658136      36.78874569       0.00000000
Nb      42.02806973      36.78874569       0.95865591
Nb      44.73955810      36.78874569       1.91731181
Nb      43.38381392      39.13696350      -0.00000000
Nb      46.09530229      39.13696350       0.95865591
Nb      40.67232555      39.13696350       1.91731181
Nb      39.31658136      41.48518131       0.00000000
Nb      42.02806973      41.48518131       0.95865591
Nb      44.73955810      41.48518131       1.91731181
Nb      43.38381392      43.83339912      -0.00000000
Nb      46.09530229      43.83339912       0.95865591
Nb      40.67232555      43.83339912       1.91731181
Nb      39.31658136      46.18161693       0.00000000
Nb      42.02806973      46.18161693       0.95865591
Nb      44.73955810      46.18161693       1.91731181
Nb      43.38381392      48.52983475      -0.00000000
Nb      46.09530229      48.52983475       0.95865591
Nb      40.67232555      48.52983475       1.91731181
Nb      39.31658136      50.87805256       0.00000000
Nb      42.02806973      50.87805256       0.95865591
Nb      44.73955810      50.87805256       1.91731181
Nb      43.38381392      53.22627037      -0.00000000
Nb      46.09530229      53.22627037       0.95865591
Nb      40.67232555      53.22627037       1.91731181
Nb      39.31658136      55.57448818       0.00000000
Nb      42.02806973      55.57448818       0.95865591
Nb      44.73955810      55.57448818       1.91731181
Nb      43.38381392      57.92270599      -0.00000000
Nb      46.09530229      57.92270599       0.95865591
Nb      40.67232555      57.92270599       1.91731181
Nb      39.31658136      60.27092380       0.00000000
Nb      42.02806973      60.27092380       0.95865591
Nb      44.73955810      60.27092380       1.91731181
Nb      43.38381392      62.61914161      -0.00000000
Nb      46.09530229      62.61914161       0.95865591
Nb      40.67232555      62.61914161       1.91731181
Nb      39.31658136      64.96735942       0.00000000
Nb      42.02806973      64.96735942       0.95865591
Nb      44.73955810      64.96735942       1.91731181
Nb      43.38381392      67.31557723      -0.00000000
Nb      46.09530229      67.31557723       0.95865591
Nb      40.67232555      67.31557723       1.91731181
Nb      39.31658136      69.66379504       0.00000000
Nb      42.02806973      69.66379504       0.95865591
Nb      44.73955810      69.66379504       1.91731181
Nb      43.38381392      72.01201285      -0.00000000
Nb      46.09530229      72.01201285       0.95865591
Nb      40.67232555      72.01201285       1.91731181
Nb      47.45104647      13.30656759       0.00000000
Nb      50.16253484      13.30656759       0.95865591
Nb      51.51827902      15.65478540      -0.00000000
Nb      54.22976739      15.65478540       0.95865591
Nb      48.80679066      15.65478540       1.91731181
Nb      47.45104647      18.00300321       0.00000000
Nb      50.16253484      18.00300321       0.95865591
Nb      52.87402321      18.00300321       1.91731181
Nb      51.51827902      20.35122102      -0.00000000
Nb      54.22976739      20.35122102       0.95865591
Nb      48.80679066      20.35122102       1.91731181
Nb      47.45104647      22.69943883       0.00000000
Nb      50.16253484      22.69943883       0.95865591
Nb      52.87402321      22.69943883       1.91731181
Nb      51.51827902      25.04765664      -0.00000000
Nb      54.22976739      25.04765664       0.95865591
Nb      48.80679066      25.04765664       1.91731181
Nb      47.45104647      27.39587445       0.00000000
Nb      50.16253484      27.39587445       0.95865591
Nb      52.87402321      27.39587445       1.91731181
Nb      51.51827902      29.74409226      -0.00000000
Nb      54.22976739      29.74409226       0.95865591
Nb      48.80679066      29.74409226       1.91731181
Nb      47.45104647      32.09231007       0.00000000
Nb      50.16253484      32.09231007       0.95865591
Nb      52.87402321      32.09231007       1.91731181
Nb      51.51827902      34.44052788      -0.00000000
Nb      54.22976739      34.44052788       0.95865591
Nb      48.80679066      34.44052788       1.91731181
Nb      47.45104647      36.78874569       0.00000000
Nb      50.16253484      36.78874569       0.95865591
Nb      52.87402321      36.78874569       1.91731181
Nb      51.51827902      39.13696350      -0.00000000
Nb      54.22976739      39.13696350       0.95865591
Nb      48.80679066      39.13696350       1.91731181
Nb      47.45104647      41.48518131       0.00000000
Nb      50.16253484      41.48518131       0.95865591
Nb      52.87402321      41.48518131       1.91731181
Nb      51.51827902      43.83339912      -0.00000000
Nb      54.22976739      43.83339912       0.95865591
Nb      48.80679066      43.83339912       1.91731181
Nb      47.45104647      46.18161693       0.00000000
Nb      50.16253484      46.18161693       0.95865591
Nb      52.87402321      46.18161693       1.91731181
Nb      51.51827902      48.52983475      -0.00000000
Nb      54.22976739      48.52983475       0.95865591
Nb      48.80679066      48.52983475       1.91731181
Nb      47.45104647      50.87805256       0.00000000
Nb      50.16253484      50.87805256       0.95865591
Nb      52.87402321      50.87805256       1.91731181
Nb      51.51827902      53.22627037      -0.00000000
Nb      54.22976739      53.22627037       0.95865591
Nb      48.80679066      53.22627037       1.91731181
Nb      47.45104647      55.57448818       0.00000000
Nb      50.16253484      55.57448818       0.95865591
Nb      52.87402321      55.57448818       1.91731181
Nb      51.51827902      57.92270599      -0.00000000
Nb      54.22976739      57.92270599       0.95865591
Nb      48.80679066      57.92270599       1.91731181
Nb      47.45104647      60.27092380       0.00000000
Nb      50.16253484      60.27092380       0.95865591
Nb      52.87402321      60.27092380       1.91731181
Nb      51.51827902      62.61914161      -0.00000000
Nb      54.22976739      62.61914161       0.95865591
Nb      48.80679066      62.61914161       1.91731181
Nb      47.45104647      64.96735942       0.00000000
Nb      50.16253484      64.96735942       0.95865591
Nb      52.87402321      64.96735942       1.91731181
Nb      51.51827902      67.31557723      -0.00000000
Nb      54.22976739      67.31557723       0.95865591
Nb      48.80679066      67.31557723       1.91731181
Nb      47.45104647      69.66379504       0.00000000
Nb      50.16253484      69.66379504       0.95865591
Nb      52.87402321      69.66379504       1.91731181
Nb      56.94125576      15.65478540       1.91731181
Nb      55.58551158      18.00300321       0.00000000
Nb      58.29699995      18.00300321       0.95865591
Nb      61.00848832      18.00300321       1.91731181
Nb      59.65274413      20.35122102      -0.00000000
Nb      62.36423250      20.35122102       0.95865591
Nb      56.94125576      20.35122102       1.91731181
Nb      55.58551158      22.69943883       0.00000000
Nb      58.29699995      22.69943883       0.95865591
Nb      61.00848832      22.69943883       1.91731181
Nb      59.65274413      25.04765664      -0.00000000
Nb      62.36423250      25.04765664       0.95865591
Nb      56.94125576      25.04765664       1.91731181
Nb      55.58551158      27.39587445       0.00000000
Nb      58.29699995      27.39587445       0.95865591
Nb      61.00848832      27.39587445       1.91731181
Nb      59.65274413      29.74409226      -0.00000000
Nb      62.36423250      29.74409226       0.95865591
Nb      56.94125576      29.74409226       1.91731181
Nb      55.58551158      32.09231007       0.00000000
Nb      58.29699995      32.09231007       0.95865591
Nb      61.00848832      32.09231007       1.91731181
Nb      59.65274413      34.44052788      -0.00000000
Nb      62.36423250      34.44052788       0.95865591
Nb      56.94125576      34.44052788       1.91731181
Nb      55.58551158      36.78874569       0.00000000
Nb      58.29699995      36.78874569       0.95865591
Nb      61.00848832      36.78874569       1.91731181
Nb      59.65274413      39.13696350      -0.00000000
Nb      62.36423250      39.13696350       0.95865591
Nb      56.94125576      39.13696350       1.91731181
Nb      55.58551158      41.48518131       0.00000000
Nb      58.29699995      41.48518131       0.95865591
Nb      61.00848832      41.48518131       1.91731181
Nb      59.65274413      43.83339912      -0.00000000
Nb      62.36423250      43.83339912       0.95865591
Nb      56.94125576      43.83339912       1.91731181
Nb      55.58551158      46.18161693       0.00000000
Nb      58.29699995      46.18161693       0.95865591
Nb      61.00848832      46.18161693       1.91731181
Nb      59.65274413      48.52983475      -0.00000000
Nb      62.36423250      48.52983475       0.95865591
Nb      56.94125576      48.52983475       1.91731181
Nb      55.58551158      50.87805256       0.00000000
Nb      58.29699995      50.87805256       0.95865591
Nb      61.00848832      50.87805256       1.91731181
Nb      59.65274413      53.22627037      -0.00000000
Nb      62.36423250      53.22627037       0.95865591
Nb      56.94125576      53.22627037       1.91731181
Nb      55.58551158      55.57448818       0.00000000
Nb      58.29699995      55.57448818       0.95865591
Nb      61.00848832      55.57448818       1.91731181
Nb      59.65274413      57.92270599      -0.00000000
Nb      62.36423250      57.92270599       0.95865591
Nb      56.94125576      57.92270599       1.91731181
Nb      55.58551158      60.27092380       0.00000000
Nb      58.29699995      60.27092380       0.95865591
Nb      61.00848832      60.27092380       1.91731181
Nb      59.65274413      62.61914161      -0.00000000
Nb      62.36423250      62.61914161       0.95865591
Nb      56.94125576      62.61914161       1.91731181
Nb      55.58551158      64.96735942       0.00000000
Nb      58.29699995      64.96735942       0.95865591
Nb      61.00848832      64.96735942       1.91731181
Nb      59.65274413      67.31557723      -0.00000000
Nb      56.94125576      67.31557723       1.91731181
Nb      55.58551158      69.66379504       0.00000000
Nb      63.71997669      22.69943883       0.00000000
Nb      67.78720924      25.04765664      -0.00000000
Nb      65.07572087      25.04765664       1.91731181
Nb      63.71997669      27.39587445       0.00000000
Nb      66.43146506      27.39587445       0.95865591
Nb      69.14295343      27.39587445       1.91731181
Nb      67.78720924      29.74409226      -0.00000000
Nb      70.49869761      29.74409226       0.95865591
Nb      65.07572087      29.74409226       1.91731181
Nb      63.71997669      32.09231007       0.00000000
Nb      66.43146506      32.09231007       0.95865591
Nb      69.14295343      32.09231007       1.91731181
Nb      67.78720924      34.44052788      -0.00000000
Nb      70.49869761      34.44052788       0.95865591
Nb      65.07572087      34.44052788       1.91731181
Nb      63.71997669      36.78874569       0.00000000
Nb      66.43146506      36.78874569       0.95865591
Nb      69.14295343      36.78874569       1.91731181
Nb      67.78720924      39.13696350      -0.00000000
Nb      70.49869761      39.13696350       0.95865591
Nb      65.07572087      39.13696350       1.91731181
Nb      63.71997669      41.48518131       0.00000000
Nb      66.43146506      41.48518131       0.95865591
Nb      69.14295343      41.48518131       1.91731181
Nb      67.78720924      43.83339912      -0.00000000
Nb      70.49869761      43.83339912       0.95865591
Nb      65.07572087      43.83339912       1.91731181
Nb      63.71997669      46.18161693       0.00000000
Nb      66.43146506      46.18161693       0.95865591
Nb      69.14295343      46.18161693       1.91731181
Nb      67.78720924      48.52983475      -0.00000000
Nb      70.49869761      48.52983475       0.95865591
Nb      65.07572087      48.52983475       1.91731181
Nb      63.71997669      50.87805256       0.00000000
Nb      66.43146506      50.87805256       0.95865591
Nb      69.14295343      50.87805256       1.91731181
Nb      67.78720924      53.22627037      -0.00000000
Nb      70.49869761      53.22627037       0.95865591
Nb      65.07572087      53.22627037       1.91731181
Nb      63.71997669      55.57448818       0.00000000
Nb      66.43146506      55.57448818       0.95865591
Nb      69.14295343      55.57448818       1.91731181
Nb      67.78720924      57.92270599      -0.00000000
Nb      65.07572087      57.92270599       1.91731181
Nb      63.71997669      60.27092380       0.00000000
Nb      66.43146506      60.27092380       0.95865591
Nb      65.07572087      62.61914161       1.91731181
Nb      71.85444180      36.78874569       0.00000000
Nb      73.21018598      39.13696350       1.91731181
Nb      71.85444180      41.48518131       0.00000000
Nb      73.21018598      43.83339912       1.91731181
Nb      71.85444180      46.18161693       0.00000000
Nb      71.85444180      50.87805256       0.00000000
