251
Lattice="16.017904913398656 0.0 0.0 0.0 16.017904913398656 0.0 0.0 0.0 16.017904913398656" Properties=species:S:1:pos:R:3:momenta:R:3 pbc="T T T"
W        1.56824311       1.56951940       1.69858122       2.19156209      -4.44874479      -1.15652902
W       -0.05102503      -0.04974877       3.31298919      -7.68600804       0.71255860       0.83441481
W        1.59635203       1.59762819       4.82708800       2.24567356      -4.07043488      -0.85598871
W       -0.00915504      -0.00787870       6.43152146       2.20728323      -1.04255564      -0.96884717
W        1.60977758       1.61105403       7.99176144      -5.39383277       1.59801361      -4.26301917
W        0.01085546       0.01213185       9.59122812      -6.03061272       5.31152184      -7.71612789
W        1.64181383       1.64309039      11.13329729      -3.20145141      -2.21238086      -1.23006345
W        0.05266261       0.05393861      12.71689995       4.22920348      -4.49401830      -5.71760090
W        1.98695422       1.98823020      14.03350483       0.32926189      -1.97845854      -3.70242831
W        0.05266238       3.30483402      -0.05010959       3.64395300      -3.78566368      -2.97940286
W        1.61073171       4.80848936       1.60306842       7.15976041      -5.45093217      -6.34390984
W        0.00412095       3.20982121       3.20806788      -0.65682892       5.83399443       5.04898645
W        1.60398138       4.81118710       4.81137920       3.97430798      -3.96305908      -1.14226021
W        0.00215230       3.20880104       6.41306283      -1.04325401      -0.30820639      -0.25065999
W        1.60456051       4.81396795       8.00887044      -7.24048779       8.24726154       3.98153760
W        0.00254119       3.21469273       9.61107685       1.20025782      -0.89910364       1.83438986
W        1.57587000       4.81504149      11.20669246      -1.11568601       6.70638084      -4.24216361
W       -0.05778383       3.20083572      12.82089829      -2.38646558       8.55867588       3.48791290
W        1.64181390       4.88843702      14.37864354      -0.71353732       4.62289860       4.18192694
W        0.01085569       6.43050582      -0.00830275       0.02276190      -0.90780632      -2.40293866
W        1.60440226       8.00932896       1.60313496      -4.29825109      -0.69687798       3.70128698
W        0.00134416       6.41189057       3.20619349      -1.04782585      -8.12755599      -3.44092199
W        1.60654328       8.00857044       4.80685465      -2.11678446       1.64708476       5.64818898
W        0.00264718       6.40766670       6.40771100       1.19311948      -4.84963866      -1.37530234
W        1.59723751       8.01110800       8.01062613      -2.12869840       4.43192158       3.26097734
W       -0.00773753       6.41381033       9.60792388      -1.94441069      -4.44345302      -0.01236945
W        1.60456091       8.01286333      11.20776609       5.32609304       4.81371490       4.78429132
W        0.00254093       6.41065726      12.80704116      -1.63874427      -5.21732397      -4.10589939
W        1.60977781       8.02997240      14.41067968      -4.29339792       2.39582027       6.75493741
W       -0.00915486       9.59021217       0.01170728       1.39381211      -1.53963988      -7.92000820
W        1.60627697      11.21139818       1.60591265       2.70125750      -0.20106558       1.48381463
W        0.00127729       9.61272994       3.21252276      -4.88069718      -4.80454486      -1.98485015
W        1.61812679      11.21478564       4.80694826      -1.76312251       2.08094690       2.94097539
W        0.01464262       9.60723617       6.41449761      -2.30383264      -4.79520051      -3.32973953
W        1.60654311      11.21487972       8.01316361      -4.11607125       9.18365861       7.33615453
W        0.00264731       9.61402297       9.61406727       3.89551918       5.03755590       4.68148051
W        1.60398123      11.21035468      11.21054696      -1.03610049      -0.51304191      -1.06655808
W        0.00215206       9.60867105      12.81293279       6.95278148      -1.50024573       8.90199674
W        1.59635192      11.19464569      14.42410559      -0.18271406       3.39058605      -6.51588395
W       -0.05102499      12.70874401       0.05357795       2.59040968       8.44457338      -2.95205126
W        1.71119849      14.47096760       1.55076621       1.00799520      -2.45398231       3.65662389
W        0.09678839      12.85169734       3.17003660      -2.07811366       2.38556674       4.93698404
W        1.60627681      14.41582141       4.81033564       0.67982431      -0.71244269       7.50641448
W        0.00127730      12.80921084       6.40900417      -6.72482267      -3.31889731       1.97207578
W        1.60440231      14.41859901       8.01240487       3.75832822      -5.26871120      -5.66715463
W        0.00134405      12.81554086       9.60984381       1.69133302       1.45456678       1.12710221
W        1.61073206      14.41866553      11.21324467      -2.61367194       3.54204916      -6.81192263
W        0.00412113      12.81366568      12.81191282       1.78838281      -1.71814015      -1.70331160
W        1.56824301      14.32315286      14.45221434      -3.64881229       2.94657220      -4.35663200
W        3.30355744       0.05393836      -0.05010970       1.00868886       2.37497735       1.22328108
W        4.80721282       1.61200810       1.60306822       4.00514756       2.22521017       0.90790671
W        3.20854497       0.00539733       3.20806781      -5.05627221      -5.09360128      -3.50336481
W        4.80991099       1.60525752       4.81137890      -1.76371321      -2.35410939      -1.72810272
W        3.20752455       0.00342863       6.41306269       1.59293776       0.55107744       0.10245039
W        4.81269134       1.60583703       8.00887017      -1.23193383      -1.28116374     -12.04139338
W        3.21341627       0.00381754       9.61107671       2.50285130      -1.10171418      -2.63000280
W        4.81376518       1.57714662      11.20669229      -0.30998078      -4.76765699      -5.56036310
W        3.19955997      -0.05650753      12.82089804       3.31997845       7.08667082       2.81131111
W        4.88716093       1.64309026      14.37864355       1.22774365       3.90865867      -3.23611860
W        3.19956033       3.20083649       0.06033735      -1.41017370       1.85648480       0.79223689
W        4.81270687       4.81398300       1.61643391       3.08639846      -4.94457109      -0.89410843
W        3.20515646       3.20643304       3.21991780      -2.27019364      -7.07404220       0.67599549
W        4.80926966       4.81054593       4.79769492      -1.52650014      -5.20912833      -1.95771626
W        3.20920350       3.21047981       6.39368050       3.94486480      -4.28811955      -3.67746061
W        4.81909112       4.82036759       7.97885368      -6.63182586       1.87922150      -7.81238044
W        3.22935836       3.23063482       9.55641125      -6.56461631      -4.50532160      -1.95254773
W        4.90678220       4.90805839      11.11367532      -2.47258074       1.32997752       4.33880000
W        3.42157069       3.42284690      12.59888656      -2.63323818      -1.85597267       1.85940536
W        4.81376515       4.81504120      14.44458737      -3.39178107      -3.47798562      -2.22537380
W        3.21341676       6.41065735       0.00001132       1.16978726      -5.29748341       0.44629363
W        4.80592004       8.01355258       1.60443850       3.97793593      -4.35852398       6.73882443
W        3.20506342       6.41264900       3.20833436      -7.67620589       0.23210955      -1.84975302
W        4.80625929       8.00933348       4.80753579       3.84351647       7.73213917      -5.44536504
W        3.20574481       6.41188620       6.40805015      -0.35626577       2.88282352      -0.35358470
W        4.79134903       8.00890175       8.01283209       0.80641099      -1.27361632       1.19867469
W        3.19243475       6.41443514       9.60729861       5.58995475      -0.99040909      -2.27188421
W        4.81909127       8.04288037      11.20136610      -0.65477499      -2.83627153       7.28351589
W        3.22935848       6.46532230      12.79109906      -1.00204968       5.25305314       4.18090157
W        4.81269159       8.01286351      14.41589673       5.42834250       4.28316418      -2.58705150
W        3.20752451       9.60867110       0.00040061      -5.98196110       4.68745099       0.35277532
W        4.81127174      11.21241823       1.60394287      -1.31062944      -4.39131439      -0.77411832
W        3.20958816       9.61003198       3.20577226       5.74522256       1.21110327      11.96169201
W        4.79189013      11.21073960       4.81099411      -2.14985984      -2.96746664      -0.38307841
W        3.19590435       9.61067343       6.41106063      -7.63196661      -1.25423435       3.65963773
W        4.80625926      11.21419827       8.01240053       6.80886794       3.41587612      -1.04851178
W        3.20574462       9.61368385       9.60984760      -7.99074013      -2.40204262       3.21495404
W        4.80926957      11.22403918      11.21118788       2.08021931      -2.83764470      -0.49634855
W        3.20920354       9.62805330      12.81125410      -4.33447776       3.96646384       2.50337152
W        4.80991081      11.21035485      14.41647618       2.52509933      -1.47842244       2.58119464
W        3.20854482      12.81366584      -0.00156856       3.08837793      10.90005608       1.56284684
W        4.82973092      14.42909754       1.59263640      -0.41343639       4.33290841      -0.81268823
W        3.22529657      12.82359056       3.19814331      -1.50762006      -2.41264354       0.57643583
W        4.81127172      14.41779099       4.80931593       2.63894314       0.05787879       6.71291634
W        3.20958808      12.81596174       6.41170164       2.65463732       2.98116881      -1.06514301
W        4.80591991      14.41729542       8.00818154       5.74157297       2.63925073      -3.17232958
W        3.20506342      12.81339935       9.60908495       2.72096841       2.35706246      -1.20964298
W        4.81270653      14.40530036      11.20775129       1.57737305      -4.32102261      -4.52486879
W        3.20515651      12.80181638      12.81530115       1.61493524      -6.60102970       0.74303824
W        4.80721324      14.41866566      14.40972587      -5.08260052       5.56446048      -6.80288514
W        6.42922922       0.01213173      -0.00830261       4.39788352      -5.54167182       3.61773225
W        8.00805255       1.60567837       1.60313533      -2.78710640       4.08777157       2.48078544
W        6.41061434       0.00262019       3.20619342      -0.97252351      -1.48117034       9.48398227
W        8.00729429       1.60781961       4.80685464      -8.17335015       1.60541335      -1.09445994
W        6.40639034       0.00392370       6.40771100       3.38320158       0.36858127       3.41249384
W        8.00983189       1.59851332       8.01062586      -8.10030465      -1.54107328      -9.30941745
W        6.41253360      -0.00646084       9.60792383       3.67677983      -0.85130251       2.22288301
W        8.01158715       1.60583719      11.20776617       3.48862954      -3.63518856       4.93552782
W        6.40938121       0.00381741      12.80704103       1.94586176      -1.68613238      -0.16837830
W        8.02869652       1.61105397      14.41067995      -4.43764979      -8.13280402       0.74701239
W        6.40938133       3.21469275       0.00001147       0.54373923       8.54535063      -1.01449234
W        8.01227661       4.80719651       1.60443817       0.14364082      -2.51398660       3.16344139
W        6.41137243       3.20633965       3.20833430      -4.39107043      -5.80814029      -4.74344599
W        8.00805674       4.80753571       4.80753545       0.63511782       4.69492857       3.51505317
W        6.41060996       3.20702127       6.40805006      -1.73558220      -2.49466385       1.56784476
W        8.00762522       4.79262523       8.01283183       2.70195204       1.10970505      10.53605726
W        6.41315905       3.19371071       9.60729832       1.33659534      -1.00692267      -2.68941064
W        8.04160391       4.82036767      11.20136618       1.68290388      -2.56443673      -2.82159007
W        6.46404599       3.23063490      12.79109906       0.27702598      -9.49399032      -1.63394325
W        8.01158718       4.81396799      14.41589668      -4.61918746       6.74958045       1.45368321
W        6.41253384       6.41381027       0.01029002       4.91277835       0.45307174      -3.55890963
W        8.00613318       8.00740957       1.59405407       4.63749590       3.09767184      -5.65314249
W        6.40883521       6.41011162       3.19902855       5.90647632       8.96161187       4.28358320
W        8.00550809       8.00678447       4.79422625      -7.39062084      -3.92720686       0.18177733
W        6.41104185       6.41231832       6.39313926      -2.92927339      -5.80864600       2.21635631
W        7.98248413       7.98376072       8.03797349      -3.62329048       3.73429194       1.51212086
W        6.43618713       6.43746314       9.58427044       2.03894318      -2.96287418      -0.77073580
W        8.00762536       8.00890188      11.22910842      -1.55519078       0.20362943       1.58510011
W        6.41315874       6.41443529      12.82802283      -4.96762985      -0.63794828      -3.82917082
W        8.00983156       8.01110789      14.42321999       2.34553897       2.07150945       3.59298110
W        6.40639012       9.61402300      -0.00009470      -1.12194919       1.07919967      -3.05392912
W        8.00928526      11.20652656       1.60433231      -0.20914308      -3.00173908      -5.77542400
W        6.40707951       9.60725158       3.20635155      -2.63959540       3.29679559      -2.41757120
W        7.95462213      11.19058533       4.83114850      -4.25359693      -5.32736968      -4.88656624
W        6.37706433       9.60085260       6.42088174      -0.65989149      -3.11412579       2.53643784
W        8.00550824      11.22750816       8.01494937      -2.61198319       2.33150677      -3.33861781
W        6.41104155       9.62859465       9.60941576       4.00514783      -2.08305276      -3.00294155
W        8.00805700      11.21419822      11.21419821      -1.24812211      -2.79571520      -1.40668976
W        6.41060995       9.61368377      12.81471267      -3.50436890       1.80247341      -0.67762007
W        8.00729424      11.21487943      14.41391423      10.01406375       1.69532168      -1.49072682
W        6.41061427      12.81554055       0.00120856       5.56073327      -0.32028575       6.30085262
W        7.98943767      14.40908750       1.61264624       4.18585977      -3.33496788       2.97229671
W        6.38997043      12.81016532       3.21156854      -2.91061768      -1.27637193       2.68676532
W        8.00928550      14.41740152       4.81520721      -3.54773913       2.83653525       4.20336725
W        6.40707918      12.81538237       6.41448223       0.41403226      -0.02544090       0.86215966
W        8.00613287      14.42768001       8.01432455       3.29554930       1.65732571       2.01649600
W        6.40883517      12.82270566       9.61162249      -4.82453014       3.69935711      -1.43503986
W        8.01227660      14.41729522      11.21453738       1.12126690       1.31674181      -5.17129278
W        6.41137252      12.81339929      12.81539407       0.07347902       1.75482549       1.69452154
W        8.00805267      14.41859878      14.41605519       1.93900247      -0.31069003      -2.52835418
W        9.58893558      -0.00787862       0.01170755       2.86737810      -2.27608451       3.49587890
W       11.21012145       1.60755330       1.60591243      -0.30886261       7.02718054       3.95924291
W        9.61145382       0.00255343       3.21252306       7.26742701      -5.29726456       5.04344760
W       11.21350935       1.61940261       4.80694806       5.94635760      -7.59275886      -4.21031854
W        9.60596024       0.01591845       6.41449730       7.39171942       7.90587255       4.12248972
W       11.21360336       1.60781966       8.01316313      -7.94597523       0.49947666      10.94810388
W        9.61274661       0.00392379       9.61406715       8.83718991      -0.97202288      -1.52407937
W       11.20907833       1.60525753      11.21054645      -5.35157367      -0.48738583       0.52978960
W        9.60739472       0.00342845      12.81293282       3.94825898       5.11215648      -1.27091607
W       11.19336952       1.59762823      14.42410532      -3.09703780      -0.56290907      -1.34209289
W        9.60739467       3.20880099       0.00040040       3.71774937      -0.93936188      -1.03480625
W       11.21114200       4.81254823       1.60394307       4.98651050       1.50112046      -0.53522058
W        9.60875538       3.21086463       3.20577218      -2.92189800      -5.99865842       0.90735228
W       11.20946317       4.79316607       4.81099429      -4.62538987      -0.72333216       2.26069785
W        9.60939713       3.19718055       6.41106057      -0.82673354      -1.50882100      -4.23898331
W       11.21292204       4.80753562       8.01240081       1.57987555       1.46476736       1.19541503
W        9.61240738       3.20702128       9.60984746      -4.74890779       1.71917899       3.13862195
W       11.22276247       4.81054603      11.21118788      -6.66324716      -0.34166559      -1.95362982
W        9.62677691       3.21047979      12.81125396       6.14175393      -0.52144972       1.44643740
W       11.20907839       4.81118715      14.41647629      -0.74152899       0.48590089       4.97085639
W        9.61274674       6.40766663      -0.00009462      -7.88421924      -3.73066032      -5.84816887
W       11.20525019       8.01056164       1.60433227       0.34681063      -6.72716235      -5.02957354
W        9.60597530       6.40835583       3.20635192      -4.31266422       6.75527312      -1.41524851
W       11.18930920       7.95589870       4.83114847       2.81882932      -7.34252747      -1.40900070
W        9.59957626       6.37834017       6.42088155       1.51902032       5.17991710       3.23233057
W       11.22623136       8.00678453       8.01494944      -0.10485299      -0.07154544      -4.89852187
W        9.62731821       6.41231823       9.60941548      -6.58361516      -2.46422584      -2.74431923
W       11.21292171       8.00933339      11.21419802       1.12269697       3.33192217      -1.12748963
W        9.61240731       6.41188619      12.81471257       4.10691132       3.24787470       2.92441491
W       11.21360322       8.00857052      14.41391401       0.72102664       2.91814245     -12.14580342
W        9.60595969       9.60723577      -0.01209018      -2.62183107      -2.25086884       3.31290156
W       11.21910407      11.22038040       1.54400931      -1.82934138       7.96979050       1.38993795
W        9.60490147       9.60617761       3.17766317       0.71891111      -2.62441100      -1.31025846
W       10.99710642      10.99838404       5.02335120      -2.02005876      -2.90734539      -4.99353792
W        9.51189164       9.51316764       6.50856600      -6.20722530       4.21141154       2.25573160
W       11.18930943      11.19058548       8.06583530       1.24714716       2.10047816       5.05227487
W        9.59957597       9.60085283       9.64339337      -1.65513286      -5.73198732       0.66869779
W       11.20946340      11.21073950      11.22856769       0.72803581       2.07829231      -0.98380716
W        9.60939712       9.61067328      12.82455329      -1.34565321       0.67970206       0.74307610
W       11.21350962      11.21478579      14.40233133       1.23568994     -11.15171382      -0.74409493
W        9.61145356      12.80921083       0.00127550       3.70446047       3.40539135       0.46376978
W       11.11511053      14.36728080       1.65445294      -2.70975400      -3.79721998       3.89095068
W        9.53150779      12.77813000       3.24360396      -0.62118924      -2.57518123       6.54885108
W       11.21910571      14.47772291       4.80135186       0.14211590       8.83549401      -0.90115745
W        9.60490100      12.84407136       6.41555671      -0.84194113      -5.42895832      -1.23603892
W       11.20525048      14.41740182       8.01117201       5.24143680       0.38151114       2.99935722
W        9.60597549      12.81538230       9.61337807       2.79142809      -0.07526165       7.10200345
W       11.21114187      14.41779078      11.20918559       0.44301446       0.13057337      -1.88113933
W        9.60875595      12.81596158      12.81086946      -0.91505863       4.90675273       3.78918935
W       11.21012176      14.41582109      14.41418086       3.19198850      -6.04783188      -8.18428344
W       12.70746712      -0.04974881       0.05357774       1.55420148      -7.66127777       4.16547147
W       14.46969088       1.71247517       1.55076641       4.81333691      -0.60243682       0.04826297
W       12.85042099       0.09806544       3.17003651      -3.16920562       3.09707188       7.43056487
W       14.41454543       1.60755325       4.81033599       3.61185334       2.57425156       0.34243631
W       12.80793430       0.00255350       6.40900369       0.66962494      -3.93924322       3.95916811
W       14.41732251       1.60567838       8.01240491       7.00464130      -4.09617436      -4.93785300
W       12.81426446       0.00262039       9.60984363      -8.88751606       5.30571673      -2.63488210
W       14.41738894       1.61200840      11.21324462       6.41421233      -3.08677599       2.40594684
W       12.81238933       0.00539766      12.81191289      -1.79131230      -3.25855254      -5.69140704
W       14.32187621       1.56951968      14.45221422       5.86567226       3.06480340       1.26282706
W       12.81238934       3.20982099      -0.00156838      -2.01407005       3.78729994       2.23272121
W       14.42782128       4.83100716       1.59263613       1.13546758       8.34625764       4.50440913
W       12.82231399       3.22657298       3.19814352      -4.83270156       6.79985167      -1.55693649
W       14.41651447       4.81254819       4.80931552       4.81774131       5.75366190       6.78070396
W       12.81468550       3.21086451       6.41170185       2.66171331       2.34855836       2.00219104
W       14.41601933       4.80719625       8.00818099       7.25415768      -3.23301546      -5.83671173
W       12.81212311       3.20633982       9.60908515       2.83948720      -6.46064576      -4.71714872
W       14.40402382       4.81398277      11.20775107       0.64824968      -3.22054435      -4.21582803
W       12.80053996       3.20643313      12.81530118       4.50202072      -9.54630496       5.65146200
W       14.41738916       4.80848957      14.40972573      -2.75997643      -4.55286857      -3.51596396
W       12.81426437       6.41189042       0.00120845      -5.41170450       4.49295553      -1.10905098
W       14.40781132       7.99071368       1.61264650       2.59634242       1.33250986      -5.02769631
W       12.80888914       6.39124669       3.21156842       0.33252483       6.60710869       0.89265632
W       14.41612536       8.01056182       4.81520746       2.58472380      -2.18918443      -4.81586528
W       12.81410576       6.40835582       6.41448225       1.11803791      -0.24255945       3.48094914
W       14.42640341       8.00740958       8.01432432      -3.20618774      -1.36766380      -4.60113170
W       12.82142931       6.41011135       9.61162232       3.13296915       0.00902676       2.79723796
W       14.41601901       8.01355271      11.21453757       4.83136694       3.18064055      -5.49225299
W       12.81212290       6.41264889      12.81539396      -1.23957794       6.65438292      -0.90684680
W       14.41732247       8.00932919      14.41605549      -2.86119582       0.93287733      -5.11535552
W       12.80793466       9.61272978       0.00127560      -8.39577448      -0.66809692      -1.36909702
W       14.36600491      11.11638678       1.65445254       5.98151700      -4.31556205       0.19052556
W       12.77685389       9.53278364       3.24360400      -1.68721178      -3.35387943      -6.23091518
W       14.47644815      11.22038132       4.80135268       2.24774048       1.52780541      -3.32630918
W       12.84279460       9.60617791       6.41555620       9.04890535      -7.89402077       5.96467252
W       14.41612549      11.20652668       8.01117207       3.15259991       5.06054551      -1.82793984
W       12.81410590       9.60725143       9.61337804       2.18425848       6.60541390      -1.43915353
W       14.41651435      11.21241830      11.20918561       0.44958407      -0.46304938       0.49723681
W       12.81468556       9.61003218      12.81086942      -3.93781938       3.11797558       2.95512343
W       14.41454487      11.21139839      14.41418087      -3.00793453       3.14776164       3.32612918
W       12.85042142      12.85169771      -0.09423430      -4.80017362       6.35953131      -3.48498469
W       13.83209198      13.83336924       2.18836748       3.30074659      -0.04954322      -0.30084201
W       12.43172780      12.43300159       3.58872870      -1.93929959      -0.19506461      -1.13628226
W       14.36600495      14.36728126       4.90534757      -0.60362268      -0.22097787      -2.37869220
W       12.77685383      12.77813018       6.48894946       0.81514104      -5.63105410       3.13163753
W       14.40781129      14.40908753       8.03102031      -3.18939679      -3.36040495       7.69249299
W       12.80888908      12.81016536       9.63048712       3.07699712       5.44829744       2.19926479
W       14.42782138      14.42909790      11.19072689      -3.47259565      -1.14117831       9.10516018
W       12.82231403      12.82359063      12.79516121       3.43726278       2.65078848      -0.27909453
W       14.46969075      14.47096718      14.30925815       1.31494124       2.35332414      -3.73390089
W       -0.79961159      -0.79833470       0.80216223      -4.75270075       0.26088338      -0.30528885
W        0.58659112       0.58786797      -0.58403843      -4.01151898      -1.20160209      -4.03079496
